Results/stes-future/powerflow/line_summaries.csv
,active_line_losses_mw,reactive_line_losses_mvar,apparent_line_losses_mva
0,0.052762625494302946,-0.41053652458923334,0.476782297304569
1,0.045318292254115766,-0.41662584167574157,0.47125106242969295
2,0.0444556433351338,-0.4173618528895779,0.4705992691015169
3,0.042949362042360884,-0.4186700879775991,0.46959252375394556
4,0.04172635120710005,-0.4197245671461135,0.46882084768537424
5,0.04012055466058648,-0.4210500601499453,0.46773359345236404
6,0.04112539762353472,-0.42019733585719765,0.468503732664603
7,0.043140395958207955,-0.41851858380646445,0.47006904803694854
8,0.04326317760208074,-0.4184468196884607,0.4701791651376357
9,0.045189465277893415,-0.4168331826435777,0.47159885865245954
10,0.053720067427305646,-0.40986568054740274,0.4777870679803877
11,0.05777405428884402,-0.4065514546716114,0.4806990477042726
12,0.0626387143062559,-0.4026526331673917,0.4843911149123631
13,0.059137498752453076,-0.40539305722262314,0.4816745562620253
14,0.06094815419829149,-0.40389744294515223,0.4829038857552137
15,0.06515900368249725,-0.40056107359007087,0.48618550647981584
16,0.06957240670134872,-0.3970693149270452,0.48988083160290363
17,0.07148033229435695,-0.3955275211590785,0.4913627498360915
18,0.06497838306308598,-0.40067114062260745,0.48610282477217137
19,0.06673688767396685,-0.39924023712182644,0.4874934461038117
20,0.06924828513331141,-0.3972506617070842,0.48944972656790203
21,0.06419203828091766,-0.4013292092212343,0.48569318802275113
22,0.05984112028369513,-0.4048460133174161,0.4822330800078805
23,0.05218633554025552,-0.41107790813148637,0.47657504748839313
24,0.04741044000520463,-0.4149919387196872,0.47314334571424954
25,0.04420484580640537,-0.417610996165893,0.4707498313645989
26,0.03934155606685143,-0.4216849623097814,0.467364360354447
27,0.039276767078633784,-0.42170359532639856,0.4671986810945125
28,0.043130002068886224,-0.41850066389632906,0.47006206861599603
29,0.04520178316382811,-0.41682034412577834,0.47146302082664016
30,0.055619831004865894,-0.4082752232405437,0.4790516081680055
31,0.065787440836487,-0.4000842999689149,0.48672764516275335
32,0.06396841725438743,-0.40151431075827687,0.48525299675665773
33,0.07059260893269026,-0.3963132529891519,0.49066899843098577
34,0.06880484339593552,-0.3977274939112296,0.4890521040012662
35,0.06888879176142705,-0.3976746364563696,0.4891203961246266
36,0.06946880293509598,-0.39724393693706167,0.4897045903015035
37,0.07059210173188062,-0.3963213528922634,0.49037673421216327
38,0.0697477853770393,-0.3970135700915112,0.4899132286189841
39,0.07221010828575536,-0.39495964433697883,0.49156605143488435
40,0.08257450272650788,-0.38663329196806867,0.4995992386231751
41,0.08427518603076188,-0.3852566519682991,0.5007285079993282
42,0.08043290678071015,-0.38836712176573335,0.49776190183575225
43,0.08014272756696345,-0.38849090254656865,0.49718806824723744
44,0.08723575072171089,-0.3829884217677829,0.5031609055131225
45,0.08106878984584712,-0.387785828298725,0.49800481483310644
46,0.07222985818699137,-0.394750902255297,0.49100583812153314
47,0.06307499997032319,-0.402097461618318,0.4841201206456335
48,0.0584981698313007,-0.4058394177978188,0.4808605328005573
49,0.05227835319011512,-0.4108795298269323,0.47615910950186885
50,0.05230258779834179,-0.41089285635519535,0.4761740024484844
51,0.049915422156367725,-0.41284494004396266,0.47447573023112866
52,0.05080825961985569,-0.41209760520036043,0.4751558917069827
53,0.0525922550994086,-0.4106635179859847,0.4764001685929049
54,0.06478119781916046,-0.40084078241425614,0.48570879161418096
55,0.07990145260590531,-0.38883305991651523,0.49762849169572393
56,0.07683234266311897,-0.39132039628800214,0.49549988244008764
57,0.07382532133236513,-0.3937024674047309,0.4932164477447561
58,0.07138955088675594,-0.39562634319252216,0.49109244846745925
59,0.06961340647404284,-0.3969361788585816,0.48955114771127217
60,0.06799425167151518,-0.3982914046544472,0.4885653615789073
61,0.0645801488888495,-0.400941744080636,0.4856236579512373
62,0.0663995170894154,-0.39948910619156935,0.48692277153560976
63,0.07358956898960345,-0.39381038300363574,0.4926230362746392
64,0.07972539542418935,-0.38884057564417274,0.4971376104130276
65,0.08500607582513897,-0.38469106091460553,0.5013385561323725
66,0.08216565447296018,-0.38705613716238446,0.4991713960767149
67,0.07985263722149794,-0.38885200220434557,0.4973655666716212
68,0.08040004385577862,-0.3883980119071865,0.4977977371672276
69,0.07651298976793779,-0.39147849865253,0.4946837544133761
70,0.06766240026341945,-0.3985306969816113,0.48795291826299075
71,0.06120625380259119,-0.4036894780546291,0.48296280211553494
72,0.056149751589108725,-0.40774110135392166,0.47904320556582075
73,0.049657020343618755,-0.4130379323325918,0.4742391226178049
74,0.049345462664255504,-0.41324324858266986,0.47394125319906694
75,0.04594648336038534,-0.41602841769875604,0.4714386373493226
76,0.047101953953896526,-0.41508252297996223,0.472188200388315
77,0.051897248515589856,-0.41118717822326184,0.47579051658523164
78,0.06351492097896669,-0.4019140627384367,0.4847396823708205
79,0.07780953651631811,-0.3905075415527592,0.49597317185683343
80,0.07254975438845271,-0.3945231509800199,0.4916720526838494
81,0.06997908840013745,-0.39660388811096414,0.4900968426148648
82,0.07842767584169608,-0.39007695615255716,0.49687975783300364
83,0.07217033519941383,-0.3950375635948605,0.49182456385085266
84,0.06982917415746641,-0.396817843191803,0.48973088700904127
85,0.06696316367087288,-0.39906031198515995,0.48755125983912073
86,0.07028434875496277,-0.39644482234955414,0.4901748508559195
87,0.07817465533406827,-0.39022594370703056,0.4964441251023692
88,0.08405491099931604,-0.3854903528977758,0.5008156482929006
89,0.09076161429291843,-0.38029518442957844,0.5064744666620847
90,0.0834226436757659,-0.38599074859798427,0.5002639925804803
91,0.07578641151157758,-0.3919080025300459,0.49372621419407786
92,0.07748138160012476,-0.3905831913729447,0.4950931745653631
93,0.07503492741435881,-0.3925775591872238,0.49319069466668924
94,0.07056421984485818,-0.39620369068469774,0.48978176405689583
95,0.06160802566457832,-0.4033810546298898,0.4829895833332566
96,0.05380268339398907,-0.4096917460363211,0.4772694524409347
97,0.050321689453450606,-0.4125155567519846,0.4748018852142083
98,0.0476988786622426,-0.4147038817041259,0.4728033464736427
99,0.045575391215033186,-0.4164508597506543,0.47128452775213353
100,0.04596538368165301,-0.4161026805505816,0.47153971010957624
101,0.05151732088152994,-0.4115981116987557,0.4757035660303753
102,0.06217374403507392,-0.4029831591250282,0.48365641916523294
103,0.07361531187069592,-0.3937471435021066,0.4924100646531793
104,0.07188711773708999,-0.3950827654213751,0.49122551615976673
105,0.06956085711485245,-0.3969903301379819,0.4896518466248282
106,0.06902727778894896,-0.3973357767905247,0.48923806839920414
107,0.07294283488028486,-0.39425410763880364,0.492190407365741
108,0.06950102494298109,-0.3969697897745615,0.48931380554739157
109,0.07393952444379459,-0.3935190813120902,0.4929412090621958
110,0.07904003957035385,-0.38941874820138983,0.49693449225946934
111,0.07997553349650685,-0.3886385474900675,0.49751946607618647
112,0.08826829821751413,-0.38215522002878966,0.5041628160247703
113,0.08707374247268733,-0.38303540613446485,0.5029609859728693
114,0.0797963167178767,-0.3886518675670313,0.49685388024104904
115,0.07960704416924815,-0.38871290940249503,0.49649689919516443
116,0.07837030898341998,-0.389812350207639,0.49558314521431307
117,0.07241213898852186,-0.3945904937375383,0.4911315806004405
118,0.07060691608587147,-0.3961221126001543,0.490011780003885
119,0.06798485389033795,-0.39821994219000595,0.48811666019425803
120,0.055245835919383285,-0.40839447581615923,0.47815437678202277
121,0.05440386727144126,-0.4092166599114577,0.47781103978451533
122,0.052714558103463566,-0.4105024238412919,0.4764714626117019
123,0.05184164339262791,-0.41124681701591087,0.47590662342385276
124,0.05118905970695156,-0.4117877202034964,0.4753547488721842
125,0.05396376057429983,-0.40956620384916737,0.47748380227730214
126,0.058528500191592975,-0.4058519539773546,0.48092183449119114
127,0.06184407056012408,-0.403220717709267,0.4833941665419594
128,0.06443272282361313,-0.4010922362533296,0.48528861956006164
129,0.07057698871958716,-0.39620259276689274,0.49003562542396273
130,0.0812909082368197,-0.38773472521014474,0.4986009781507336
131,0.08433802696149748,-0.38517844141367164,0.5005835814027736
132,0.09020937149642026,-0.38062154990875974,0.5054863623521584
133,0.08532769470697203,-0.38445453812891706,0.5015243412358792
134,0.07614103827505198,-0.39160679080536964,0.4938949635431868
135,0.084916247373305,-0.38479404564393427,0.5013305012367327
136,0.09110366817672949,-0.37988904667024637,0.5062266583193047
137,0.09255666506300324,-0.3787254066786886,0.5072333492566896
138,0.09044220968549946,-0.38027370725800935,0.5049851894732157
139,0.08792440063491379,-0.38220732062006485,0.5030455785734511
140,0.08543416536948473,-0.38432779522737026,0.5014090378368405
141,0.08339846676588422,-0.3858595216789604,0.4996257605811476
142,0.079670297128185,-0.3888105899570298,0.496795518690312
143,0.0757586292217789,-0.39196006044035275,0.4938089294636945
144,0.07300305515640408,-0.39418580554068217,0.49176433130428143
145,0.06958908974716937,-0.3969306222642022,0.4891649219563141
146,0.07040984470641742,-0.39633897191473005,0.4900602305703669
147,0.06468352599209234,-0.40080942086615856,0.485344312853897
148,0.06677645370425873,-0.3991533976866377,0.4869787976424491
149,0.07000473758325527,-0.39664062212460505,0.4896941011053517
150,0.07160839658199264,-0.3952942516511621,0.4907408264214646
151,0.07502276440661144,-0.3925644024289522,0.49340332243590646
152,0.08278425003522485,-0.3865104716973918,0.49983437026989386
153,0.08809312771704635,-0.3822639349287126,0.5038083748486799
154,0.09771989503875353,-0.37476320910384264,0.5116348062955628
155,0.09718966728645237,-0.3750974188930232,0.5109403187184199
156,0.09898621999209802,-0.37374574253786497,0.5126468778575755
157,0.10273715415129454,-0.3708584375734085,0.5159196099818483
158,0.10265223084419005,-0.3709520798076639,0.5159042101727102
159,0.09996469315661509,-0.372970704398478,0.5134678947919795
160,0.09901414757567115,-0.3736476960818045,0.5123629211073479
161,0.10274980649943408,-0.3708277972928491,0.5156157503380596
162,0.09962535135270938,-0.37309362346921726,0.5125846278427544
163,0.09785262572596695,-0.3745621382272002,0.511318805478748
164,0.10032135821344049,-0.3727723862441149,0.5138899329749044
165,0.08889702865350864,-0.38171201734639904,0.5046324919223781
166,0.07563596272378331,-0.392079102803657,0.4937983343583279
167,0.06748955472510104,-0.3985642342255851,0.4874566088739737
168,0.062078087591056486,-0.4030243032967434,0.48372492351872765
169,0.05766654518712866,-0.40662598146330287,0.4804277080797594
170,0.05621260744131511,-0.40779967262287625,0.4794110732396287
171,0.05602841043192815,-0.40791409950032276,0.4791823210712284
172,0.05495875720769576,-0.4087131001959407,0.478115936763575
173,0.05831670898191835,-0.4060930553355201,0.4809030395153946
174,0.07059571494568913,-0.39628542280084916,0.4904697793829568
175,0.0846508709175395,-0.38513386568733676,0.5015645502560716
176,0.08772611486868992,-0.38270467803292446,0.5041949290628569
177,0.08058473722671253,-0.38836071426975133,0.49848190643120033
178,0.08232762459259887,-0.38707467411281915,0.4999507540927764
179,0.07347920290589025,-0.3939513905533299,0.4924835201808343
180,0.07053075479469542,-0.39623023008356817,0.49025548917026807
181,0.06444497082957196,-0.4010350497049573,0.4856960010271946
182,0.06913926894322446,-0.39729694838698276,0.4891351347573469
183,0.0757833121277237,-0.39192184590581536,0.4940687410802184
184,0.09202622801143717,-0.37916520582350116,0.507167037593385
185,0.09409881105425438,-0.37751771499844505,0.508783381180007
186,0.08623731865267978,-0.38351635264958983,0.5017124987901626
187,0.0923563725887292,-0.37870749991577723,0.5065015672695857
188,0.09012434814699939,-0.3805134058584214,0.5049457214896818
189,0.09364035650559446,-0.37778218333690655,0.5078069711623487
190,0.08619380265448415,-0.38371200794500343,0.5020623530113685
191,0.07581617318955511,-0.39198265460234766,0.49400177332887957
192,0.0653898390352813,-0.40030663970273844,0.48607841735734447
193,0.06754428728114538,-0.39859548495231545,0.48797095114891526
194,0.06656070081818852,-0.3994342789232456,0.4872727979068295
195,0.060551494399438736,-0.4041831790028384,0.48233516053515996
196,0.061240966485517814,-0.4036972353650649,0.4829889129346842
197,0.0670243921998186,-0.39903656674113636,0.4874318259770401
198,0.0813315909035901,-0.38766301358005706,0.4986354280740625
199,0.09412297007483204,-0.3776551094417404,0.5091175127538546
...
